TestCases/16bus.txt
TAPE
                               100.00           16 BUS AC SYSTEM 
BUS DATA FOLLOWS                     16 ITEMS
   1 BUS_1   18.0 0   1  3 1.0000 0.0000 0.000000 0.000000 0.000000 0.00000 18.0000 1.0000 999999. -99999. 0.00000 0.00000    0
   2 BUS_2   230. 0   1  0 1.0000 0.0000 0.000000 0.000000 0.000000 0.00000 230.000 1.0000 0.00000 0.00000 0.00000 0.00000    0
   3 BUS_3   13.8 0   1  2 1.0350 0.0000 10.00000 55.00000 110.0000 0.00000 13.8000 1.0350 80.0000 -40.000 0.00000 0.00000    0
   4 BUS_4   230. 0   1  0 1.0000 0.0000 0.000000 0.000000 0.000000 0.00000 230.000 1.0000 0.00000 0.00000 0.00000 0.00000    0
   5 BUS_5   115. 0   1  0 1.0000 0.0000 75.00000 15.00000 0.000000 0.00000 115.000 1.0000 0.00000 0.00000 0.00000 0.00000    0
   6 BUS_6   230. 0   1  0 1.0000 0.0000 0.000000 0.000000 0.000000 0.00000 230.000 1.0000 0.00000 0.00000 0.00000 0.00000    0
   7 BUS_7   115. 0   1  0 1.0000 0.0000 90.00000 20.00000 0.000000 0.00000 115.000 1.0000 0.00000 0.00000 0.00000 0.00000    0
   8 BUS_8   230. 0   1  0 1.0000 0.0000 0.000000 0.000000 0.000000 0.00000 230.000 1.0000 0.00000 0.00000 0.00000 0.00000    0
   9 BUS_9   20.0 0   1  2 1.0500 0.0000 15.00000 4.000000 220.0000 0.00000 20.0000 1.0500 140.000 -100.00 0.00000 0.00000    0
  10 BUS_10  230. 0   1  0 1.0000 0.0000 0.000000 0.000000 0.000000 0.00000 230.000 1.0000 0.00000 0.00000 0.00000 0.00000    0
  11 BUS_11  230. 0   1  0 1.0000 0.0000 0.000000 0.000000 0.000000 0.00000 230.000 1.0000 0.00000 0.00000 0.00000 0.00000    0
  12 BUS_12  230. 0   1  0 1.0000 0.0000 0.000000 0.000000 0.000000 0.00000 230.000 1.0000 0.00000 0.00000 0.00000 0.00000    0
  13 BUS_13  69.0 0   1  0 1.0000 0.0000 50.00000 2.000000 0.000000 0.00000 69.0000 1.0000 0.00000 0.00000 0.00000 0.00000    0
  14 BUS_14  69.0 0   1  0 1.0000 0.0000 35.00000 3.000000 0.000000 0.00000 69.0000 1.0000 0.00000 0.00000 0.00000 0.00000    0
  15 BUS_15  115. 0   1  0 1.0000 0.0000 0.000000 0.000000 0.000000 0.00000 115.000 1.0000 0.00000 0.00000 0.00000 0.00000    0
  16 BUS_16  115. 0   1  0 1.0000 0.0000 150.0000 20.00000 0.000000 0.00000 115.000 1.0000 0.00000 0.00000 0.00000 0.00000    0
-999
BRANCH DATA FOLLOWS                  16 ITEMS
   1    2 0   1 1 1 .00350000 .03500000 0.0000000   200                0 0  1.0000 0.00000 0.0000 0.0000 0.0000 0.0000 0.0000
  15    2 0   1 1 1 .00270000 .03270000 0.0000000   200                0 0  1.0880 0.00000 0.0000 0.0000 0.0000 0.0000 0.0000
  13   12 0   1 1 1 .00210000 .04170000 0.0000000   120                0 0  1.0251 0.00000 0.0000 0.0000 0.0000 0.0000 0.0000
   3    4 0   1 1 1 .00380000 .03850000 0.0000000   100                0 0  1.0000 0.00000 0.0000 0.0000 0.0000 0.0000 0.0000
   5    6 0   1 1 1 .00170000 .04170000 0.0000000   100                0 0  1.0000 0.00000 0.0000 0.0000 0.0000 0.0000 0.0000
   7    8 0   1 1 1 .00170000 .04170000 0.0000000   100                0 0  1.0000 0.00000 0.0000 0.0000 0.0000 0.0000 0.0000
   9   10 0   1 1 1 .00120000 .02400000 0.0000000   100                0 0  1.0000 0.00000 0.0000 0.0000 0.0000 0.0000 0.0000
   4    6 0   1 1 0 .00670000 .03520000 .07460000   359                0 0 
   8   10 0   1 1 0 .00670000 .03520000 .07460000   359                0 0 
  10   11 0   1 1 0 .01000000 .05280000 .11190000   359                0 0 
   2    4 0   1 1 0 .01660000 .08800000 .18640000   359                0 0 
   2   11 0   1 1 0 .01660000 .08800000 .18640000   359                0 0 
   5    7 0   1 1 0 .00830000 .04550000 .00810000   202                0 0 
  15   16 0   1 1 0 .02770000 .15180000 .02710000   202                0 0 
  11   12 0   1 1 0 .00670000 .03520000 .07460000   359                0 0 
  13   14 0   1 1 0 .05210000 .17730000 .00370000    88                0 0 
-999
LOSS ZONES FOLLOW                     0 ITEMS
-99
INTERCHANGE DATA FOLLOWS              0 ITEMS
-9
TIE LINES FOLLOW                      0 ITEMS
-999
END OF DATA